1000			
distinction			
C	2.150250809	7.584270257	6.058926369
C	2.007633106	6.784730514	5.95981068
C	4.634012906	1.424203377	2.864739429
C	4.244613878	1.696368008	2.873529096
C	6.64731087	7.645292722	5.562577906
C	6.829629901	7.020953659	5.428213962
C	1.050327505	3.255359755	3.364858895
C	0.70923055	2.817272912	2.664905102
C	3.989599825	6.503361982	0.724090873
C	4.43469257	6.085428872	0.829592726
C	6.26719114	3.080781603	5.289053679
C	6.6843199	3.851135451	4.912746654
C	8.200754795	7.07611553	7.35801371
C	7.90493319	6.964748392	7.525958672
C	5.592349064	2.514218744	5.841288675
C	5.475471139	3.255733764	5.509663955
C	6.916979876	5.121550025	3.026251314
C	7.005410716	5.798206142	2.832043958
C	4.486032899	3.998077871	7.446740806
C	4.30989878	4.471471981	7.11703363
C	3.438608957	6.280011571	1.795870415
C	2.821097268	6.426978744	1.991188713
C	5.311579239	2.748239856	2.208926699
C	5.317720111	2.381309397	2.578664746
C	5.466010042	4.063574406	2.643923063
C	4.871935924	4.509676954	2.412671629
C	3.546300021	7.825139565	5.26577521
C	3.775834041	7.886101228	6.156274159
C	1.792370192	0.306832213	5.780718854
C	2.398709949	0.595539092	5.743220036
C	4.829850229	3.702592828	7.32426242
C	4.471046565	3.68992073	6.879037834
C	0.787119729	2.665686172	3.338477626
C	0.732023752	2.156719015	3.119808986
C	0.543134669	5.91468073	2.812064922
C	0.895883389	5.569826658	2.337357518
C	6.118686833	0.32491241	5.743667732
C	6.176778338	7.579755671	5.638215443
C	2.123995549	3.214019951	0.236449084
C	3.165817087	3.116444059	0.447281787
C	5.977664226	3.886433067	2.564257038
C	5.812133364	3.516090203	3.218822256
C	0.892833757	1.392850245	7.400990073
C	1.494719803	1.614656611	7.918743235
C	7.079243552	5.180682233	0.552111384
C	7.163443179	4.574549245	0.445614883
C	1.307123873	4.861657647	2.246006344
C	0.632236421	5.098141069	2.665380877
C	7.247867357	6.693428008	0.184366643
C	7.233656429	6.238206277	0.487080832
C	7.898606764	1.559257153	4.052203143
C	7.864827822	1.986430364	3.248210916
C	8.060894164	6.220214762	7.348584422
C	0.189680337	6.285938804	6.716888401
C	6.659315893	5.546391496	8.02050949
C	7.115138775	4.742128727	7.621608968
C	0.058673481	3.940399561	0.897779873
C	0.507990328	3.84668982	0.620342169
C	0.315390316	4.333400965	5.325844423
C	0.539157076	4.874543092	5.350779131
C	7.367691094	6.077514716	7.074283728
C	7.636463174	5.87696207	7.087792927
C	0.524977428	3.825404159	2.249264858
C	0.650676283	3.904240049	2.62245103
C	7.012187917	4.979858971	1.212257188
C	6.812480095	5.19589418	1.698903386
C	3.279288961	5.163028092	6.441234243
C	2.643396574	5.33368025	6.658824906
C	0.910796708	2.197155148	6.381893824
C	1.019329887	1.469806233	6.051463145
C	7.560594778	1.277952077	1.833293783
C	7.788220298	0.929901056	2.077691116
C	1.948554162	5.287791159	6.351680853
C	2.371370034	5.296313097	5.758281225
C	2.932329613	3.555333915	7.416970654
C	2.86280518	3.999322805	7.149594448
C	1.817154991	0.794378538	0.588233577
C	1.269802899	0.440383923	0.284440833
C	6.259189792	7.207346361	0.86590612
C	6.987079163	7.555887387	1.001682038
C	0.339054301	3.021488233	5.086427234
C	0.256128293	3.314439681	6.211176248
C	5.209360675	7.931705659	1.781034137
C	5.193154253	7.186414028	1.951139731
C	1.585473709	6.066459505	1.370502283
C	1.433897915	5.748781458	1.203947729
C	2.898313198	4.484099984	2.867337255
C	2.509620557	4.912157476	2.97634048
C	4.356476575	0.240848877	7.199666813
C	4.709647426	0.091413627	7.858978184
C	1.674876936	2.625856762	8.183333825
C	1.706281516	3.03418011	0.190742062
C	4.113599903	4.106119	4.613407315
C	4.677772144	3.139708679	5.549512816
C	5.314131309	7.186021621	3.647502702
C	5.358387333	6.753298495	4.272880061
C	4.835464441	1.888355878	4.317388773
C	5.097807303	1.04346157	4.835402818
C	6.505327978	3.707406655	6.860149301
C	6.692243811	3.184971427	6.428888809
C	2.721312665	5.213166859	2.669172423
C	2.50800389	5.280490228	2.197162632
C	3.498798157	0.064217094	5.924793051
C	2.803750742	7.818528731	5.873052469
C	4.180280065	2.55963353	2.813665373
C	4.494657128	2.871519578	2.476615543
C	3.972021615	4.722869544	4.1520023
C	4.264582755	4.984652856	4.919378641
C	5.245488829	5.227769793	0.143127031
C	5.215934485	4.561949868	0.014851928
C	6.830926975	2.901105453	4.654050903
C	7.235842177	3.038357562	3.429823745
C	7.718037433	7.549866926	0.541494846
C	7.59589684	7.422863638	8.209349563
C	6.510717657	6.538349919	1.110341947
C	6.017942428	6.580258883	2.047155165
C	3.128027686	2.910121338	5.26111573
C	3.583314708	3.267967308	4.938526509
C	7.38052224	2.083336831	0.701965822
C	6.793847141	1.762750527	0.707985773
C	4.691068247	2.829871867	7.570779322
C	4.217596019	2.168622795	7.445598681
C	2.631989804	6.104192705	1.498597561
C	2.078221717	5.451720644	1.447723637
C	2.285368347	5.382845705	5.294240505
C	2.234434593	4.99392483	4.828222158
C	2.442969436	3.435620073	0.848313446
C	1.92320287	3.211417982	1.594411759
C	0.390306327	8.06359935	2.363911203
C	0.927545572	0.441004353	2.979020757
C	1.338923331	5.455913664	4.336034042
C	0.960877238	6.542688512	4.239670141
C	1.268562422	0.878108304	1.813027898
C	0.423837361	0.545693723	2.069166992
C	4.937305039	7.792063427	5.575397838
C	4.66740438	7.520906389	5.083068032
C	5.667237737	4.780187343	0.596338867
C	5.511189403	4.593824607	1.351677169
C	7.514481433	7.894430818	1.111429792
C	7.000448816	7.811190376	1.48591848
C	2.270680113	3.027357202	4.877694983
C	2.320065656	2.682652562	5.353305426
C	5.082889293	3.765755171	6.458820304
C	5.297147791	4.001752402	7.082645603
C	6.807064648	7.167752928	3.002576057
C	6.31005701	7.816566424	2.68496897
C	3.653334937	7.59023536	2.729073324
C	3.860686893	7.580142823	2.266724206
C	1.289272148	2.310800343	6.273771383
C	0.77659579	3.136631273	6.635537416
C	7.74146088	7.999540959	0.864323043
C	8.180436706	0.242901303	0.684430569
C	2.320969387	4.080556152	1.858578405
C	2.669175812	4.033075967	2.03401488
C	5.472558883	1.771835717	3.499973624
C	4.915402545	1.917923305	3.382307727
C	1.989330636	5.758353624	5.437646262
C	2.27416638	6.018285626	5.778746939
C	7.819616847	2.186178055	2.495003543
C	0.049926702	2.094306886	2.46445689
C	2.468724152	2.37158465	0.097637894
C	2.712029707	2.019344489	0.264486771
C	6.519059786	1.452685943	8.054024599
C	6.32616721	1.128256359	7.712662643
C	2.973383608	2.930953264	6.907433462
C	2.901168116	2.377739982	7.114664504
C	5.145704345	0.129270982	2.064978649
C	5.09463013	0.60920285	1.582129828
C	0.905940206	1.580642798	5.09508955
C	0.946840534	1.331747644	5.490153559
C	6.667687329	3.427736958	1.245406317
C	7.141391196	3.192399207	1.78419618
C	1.786914406	7.493821399	2.072070782
C	1.140921932	7.47446585	1.871902976
C	7.313028408	7.465285124	3.592873415
C	7.211312593	7.269042421	2.951671189
C	7.690922782	1.526994752	4.962682477
C	7.824984056	1.077294045	5.805683158
C	5.95119951	2.261015405	2.913736467
C	6.00997156	2.137440982	1.978319879
C	6.400543533	1.54713328	0.249576295
C	5.954295717	1.232205667	0.786422577
C	6.069260851	8.188089551	6.314850011
C	5.980775083	0.171668554	6.721342026
C	2.074745622	1.690045521	2.213830216
C	1.906595602	1.180910748	2.285944384
C	4.592508403	5.328166477	3.55653602
C	4.765131004	5.761147762	3.342433385
C	5.087306312	0.637746041	0.905967739
C	5.197405378	8.140019443	1.320147922
C	2.000408042	6.935659815	1.867618448
C	2.103789125	8.06748469	2.089339768
C	0.027088366	6.581548865	7.25849384
C	8.10057772	6.082128615	6.712564925
C	6.11858596	5.999293687	7.733772517
C	5.719493947	5.58807284	8.039399572
C	0.968530327	1.533403574	7.016824863
C	1.55239269	1.381828917	6.683190429
C	0.317010037	4.707778403	7.946512323
C	8.108191931	4.252143689	7.910548973
C	8.194002421	3.642288714	4.327168163
C	0.328975852	3.673320029	4.353528291
C	5.260589838	2.07927564	6.062312708
C	6.517302237	2.614348756	6.00147993
C	5.226201541	6.628000785	1.775182069
C	4.733341211	6.994951954	2.482675781
C	2.80281771	7.183340218	3.53425249
C	3.117790099	7.640980869	4.131951102
C	5.92698384	6.804997272	4.433787196
C	5.911488237	6.189703181	4.476982511
C	5.976996898	1.483406062	0.527923759
C	6.025532799	2.290361858	1.296892751
C	7.498470484	4.54945241	7.943019801
C	8.105414578	3.939164467	8.06377471
C	3.18898947	6.533405171	8.038640878
C	3.666840605	6.59911208	7.716706754
C	3.102916747	4.962654618	7.216941831
C	3.332087866	5.088864841	0.084687916
C	2.751264748	0.217093994	0.312360743
C	2.687861041	7.617599838	0.894031066
C	4.84084249	8.118327729	4.667989695
C	4.545786776	0.005771974	5.494302578
C	0.670780896	8.093899961	6.127473413
C	0.519824626	7.716176608	5.95435357
C	6.749048376	7.061951588	5.108347084
C	7.478695965	6.53579228	4.960906469
C	7.583083028	3.740178465	2.781166667
C	7.774942165	4.340136121	3.100892451
C	3.712057822	7.276049916	4.016900811
C	4.335505732	6.959335389	3.863035111
C	7.52079792	6.713160375	1.917022364
C	7.678374601	6.962445979	1.053428134
C	3.313224728	2.506105776	6.908257788
C	2.659253538	2.400619033	7.502982395
C	1.996854524	7.973886856	0.220712768
C	1.145198767	7.533987306	0.592108638
C	7.437902323	7.535745352	4.631548137
C	7.748011773	7.923920109	3.863307698
C	1.417021597	0.268894142	3.495806805
C	1.859182315	7.979839772	3.743433049
C	5.345897876	3.039371046	6.418388146
C	5.352244515	3.531697015	7.437737303
C	1.817146497	1.581421786	5.06136727
C	1.368992863	1.967166814	4.833628702
C	2.132354521	7.854299864	6.841962731
C	2.888323555	7.338067421	6.763687828
C	5.740514013	7.170430271	2.990489973
C	6.150084376	7.437522097	2.720705609
C	2.627850801	0.166052292	3.666268031
C	2.441997802	7.962880974	4.044746506
C	1.208140201	6.322284599	5.691407136
C	1.567786133	6.818677838	5.243900078
C	7.907110664	2.731213707	6.728618906
C	8.110217791	2.094973756	7.117234196
C	3.179267664	6.980382996	6.332806581
C	3.690459225	7.31577872	5.093671461
C	0.621247423	3.60714207	1.80527326
C	8.021464487	3.576714522	1.526686986
C	7.363353348	5.938114633	5.319616542
C	7.532963735	5.436920693	4.808054078
C	0.933941615	6.545423214	0.221772099
C	1.177882862	6.246204875	8.143163245
C	2.912129977	4.321073194	5.549103634
C	2.950505625	3.865588639	5.250204523
C	3.36819893	8.098002982	1.19376718
C	3.197877522	0.27939397	1.328350524
C	7.764345997	6.245436736	0.154979762
C	0.187148698	5.622256852	8.003894896
C	3.031312576	2.153672371	1.933224241
C	2.459278614	2.094658636	1.417180703
C	6.007220641	5.179837994	4.496544976
C	5.732717195	4.854723718	4.66867862
C	3.305484712	1.839283821	3.202583718
C	3.304354951	2.081207882	2.904815726
C	4.999000344	4.146139594	3.934672618
C	4.742186078	4.725343685	3.454245233
C	8.04197916	1.812777345	1.642301127
C	0.223148577	1.432201926	1.726015128
C	2.188093238	2.08928605	3.146951296
C	1.39439535	1.692164322	3.477742286
C	5.740814039	6.814360221	8.024991488
C	5.137956757	7.332261528	0.160137997
C	3.791271413	1.055593659	6.931130835
C	3.892975269	1.04210286	7.687809281
C	6.242645584	1.122567099	6.239742831
C	5.681225319	1.411320085	6.584602309
C	5.413866989	3.825323258	5.270222039
C	5.77450328	3.02183096	5.343746672
C	5.284179972	8.015858983	5.944562008
C	5.324284211	8.18696901	5.458578484
C	5.924892926	2.142349761	3.732009908
C	6.015921376	2.777602888	3.46945622
C	7.336319011	4.647107532	3.012253121
C	7.456265505	4.9024057	2.705711538
C	4.078696979	6.611276401	7.956452537
C	4.320248103	6.833865919	0.358534314
C	3.359570788	4.533041007	0.058115109
C	3.238552434	4.7902977	0.348817725
C	1.242156013	5.965574718	2.464713866
C	0.829827524	6.466334403	2.750728064
C	2.389237649	0.317181842	4.34507581
C	3.139516453	1.031112382	3.89637203
C	7.355094247	1.446297957	6.289435157
C	7.253012335	1.677102713	6.55006988
C	3.339102259	6.901830172	2.241658962
C	3.884072006	7.262041014	1.882717737
C	5.168835483	4.625407601	7.040376641
C	5.011890976	5.390126995	7.1358627
C	0.177254511	1.553751424	0.503574542
C	0.350834886	2.467906268	0.458723671
C	4.693633283	2.840450338	3.951780149
C	4.521329149	2.079090133	3.991541209
C	4.278147295	7.481933799	4.342357237
C	3.274681367	7.262433881	4.806693674
C	6.701742891	6.656052481	2.195265207
C	7.56382938	7.232965348	2.084627444
C	1.711899054	5.325598712	5.755537149
C	1.277195939	5.08304495	6.619826804
C	2.230586414	7.76805515	2.642341583
C	1.97785026	6.890278864	3.512762583
C	3.34609003	4.510644551	4.470432311
C	2.977870778	4.334679758	3.897130164
C	3.960970695	0.179012461	0.288617659
C	3.687180668	0.595463323	0.711639422
C	0.89630151	0.21496066	3.736621796
C	0.523727669	0.422482724	3.276937917
C	0.00498327	5.109857718	6.645008256
C	0.607030517	4.580087901	6.619684072
C	7.155030607	7.490978083	6.897350646
C	6.794281319	6.657594924	7.283417697
C	6.277878251	4.796415813	7.718815723
C	5.879506071	5.156127999	7.879758535
C	4.488245336	1.265844817	0.546625449
C	4.493407549	1.427414181	0.923750358
C	7.658790253	3.695823781	3.306472218
C	8.196661989	4.010828829	3.271620967
C	3.653262333	1.344781193	1.761915167
C	3.838804124	1.556472167	1.571759206
C	4.544137185	0.034056291	2.092321479
C	4.81061238	0.525715214	2.579420692
C	1.177011255	2.792484587	6.550288742
C	1.556158513	2.317850618	6.857291669
C	3.357439954	0.065517979	2.058453918
C	2.508060686	7.930619136	1.913195881
C	7.20393721	6.062190206	3.018909558
C	6.76100022	6.197445796	3.336712909
C	4.284573435	0.388640077	4.913376775
C	3.747734027	0.912142792	4.681111811
C	4.88278769	6.816409073	4.662261486
C	5.568162882	6.186518734	5.907063565
C	5.51883391	6.789231992	2.871972996
C	5.494818871	7.460394197	3.301260658
C	2.671550704	7.88508817	7.345289962
C	3.227800758	7.970573413	7.590028233
C	0.951516852	7.759087149	4.423601178
C	0.718671996	7.830344876	3.595752634
C	6.507970286	6.647639355	3.825554643
C	6.817727642	6.736086296	3.75078375
C	5.440343162	5.792280807	4.927858583
C	5.147379319	5.205332804	4.461800197
C	0.689043674	7.793444904	7.617145291
C	1.282143529	7.73022588	8.195426894
C	7.722848731	5.738362151	7.850973938
C	7.533832413	6.523800067	8.129957664
C	1.497723464	7.136725275	4.156963539
C	1.562458154	7.929198395	4.39988841
C	2.15529872	2.553614202	3.053117958
C	2.074535988	2.855984582	3.654647765
C	1.861247286	3.360229118	4.676664775
C	1.562583183	3.678302012	4.986753769
C	1.466303656	6.448233717	0.953856794
C	1.055987808	6.942450836	1.209824987
C	0.747015141	4.351033292	6.911465495
C	0.786123209	4.196511834	7.521852639
C	5.60036958	1.22433249	7.171086453
C	5.35598483	0.91160207	7.219739338
C	0.268314588	7.405536847	4.85482561
C	0.103172214	7.686565847	4.952960731
C	5.760944447	7.844928696	3.943904
C	5.98249749	8.132514297	3.647284814
C	7.22034526	3.300816877	4.984816296
C	6.669154429	3.340694939	4.545503651
C	1.38642586	3.621044186	7.801956398
C	0.782867949	3.63214991	7.224855049
C	0.727946156	6.942346554	1.736183026
C	0.131228665	6.551407821	1.523106273
C	0.060167065	7.502827869	1.654308152
C	0.540991268	7.662428122	0.899347819
C	8.013599397	3.162647762	2.517603817
C	6.602231698	3.065299316	2.14871199
C	7.598908759	6.174891752	4.218693956
C	0.044830044	6.814029538	3.473345882
C	4.285162805	3.59849987	2.312327705
C	4.143755614	3.134382815	2.286699544
C	2.318752467	7.847665174	8.137469424
C	1.901726137	0.150427963	0.50864131
C	4.614095184	1.739962289	1.689442414
C	4.455014538	1.903261964	1.226511084
C	4.119868366	8.003752709	3.806575727
C	4.102613219	0.354899505	4.282983571
C	0.548549018	2.062683568	6.765316578
C	0.48214889	1.53460803	6.812551768
C	5.997981424	7.440372892	0.873126198
C	5.411919042	7.729724985	1.011480253
C	6.006838781	0.166583474	2.357792187
C	6.420575633	0.00093232	2.049064439
C	3.731168917	3.852554382	5.495852749
C	3.159106498	3.560001395	5.105154717
C	3.315526698	1.761271405	1.192642704
C	3.355814964	1.976872433	0.798708961
C	6.669848721	7.302584946	3.778846393
C	6.592701048	7.835281338	4.585167057
C	2.371510718	4.108331583	5.759351525
C	2.200949023	3.563770227	6.085955684
C	6.57129575	6.036624111	0.744600927
C	6.389860015	6.244182865	1.219186082
C	4.989197738	5.383664884	0.836823343
C	5.666468375	5.644906914	0.751564793
C	4.402604084	7.359568325	2.203317278
C	4.129016988	6.873451367	1.711680945
C	1.863040373	1.575619071	2.912755061
C	1.063404949	1.416067682	3.140035526
C	1.837728868	7.059874546	6.400578797
C	1.526073323	6.732205209	6.51347306
C	7.821623972	6.46946999	2.528192999
C	0.183906921	6.546645533	2.820343425
C	4.397038525	4.007905808	1.582634818
C	4.00339755	4.498546382	2.185575333
C	1.250340229	5.393940403	6.838976479
C	1.527628226	5.45977932	7.12952479
C	2.367079662	7.840964043	4.500827594
C	2.731698829	7.443698156	4.504066725
C	6.973123792	0.137456736	7.160729553
C	6.484659635	0.058496372	7.331879637
C	5.447929146	4.609106877	4.76367897
C	5.353203349	3.849677303	4.76762361
C	4.465270023	0.890526933	4.069608171
C	5.355215613	1.311667187	4.423323662
C	4.248859486	6.962017751	3.188232569
C	4.611559816	7.26372312	2.858558575
C	3.754314734	3.63042959	0.021689248
C	3.746939629	3.127899146	8.192453155
C	7.185550754	0.835674391	6.152739917
C	7.347745072	1.350844645	5.698802473
C	5.371394839	5.614894902	1.490041082
C	5.471626152	5.60353795	2.04288381
C	4.866585989	7.1042143	7.382666332
C	4.590119105	6.775285877	7.039702304
C	1.938645884	4.126048906	3.41380147
C	1.594358661	3.924100076	3.135950159
C	6.429098288	5.04736176	5.065999733
C	6.819456578	4.539171878	4.34787564
C	3.914427122	6.264829436	6.426451793
C	4.428014226	5.648002633	6.149632201
C	7.10525046	7.494254699	4.273554013
C	6.676570938	7.30881622	4.770144642
C	4.462022704	5.785315757	5.248397346
C	4.401174415	6.029875667	5.731923604
C	7.51322518	5.626248423	1.580723474
C	7.106731013	5.075476404	1.602631675
C	4.533136209	5.912355789	0.17119709
C	4.649780888	6.227006224	0.117038118
C	4.085903745	5.683899233	7.366450899
C	3.65162635	6.241134324	7.124387763
C	1.176567377	1.181308019	7.135672568
C	1.390949438	1.0274125	7.419783565
C	4.900413204	5.139820969	5.189500299
C	5.83449301	5.136129889	5.35979899
C	0.155482815	3.628147772	3.781994274
C	8.059429649	3.560090064	3.555356177
C	3.924563229	6.646209947	4.443548926
C	4.087535961	7.175395012	3.808005051
C	4.181684878	4.351663214	7.712212925
C	3.947521521	4.203857379	6.977629452
C	7.387038482	1.193632338	4.737715224
C	7.088056361	1.044791784	4.307206217
C	1.579697639	1.871134716	6.763906614
C	1.619163266	1.917413023	6.226542298
C	1.255567353	5.535224471	3.279034627
C	1.568247368	5.177818681	3.844298602
C	6.157081579	5.835738504	2.858570826
C	6.400706969	5.443321548	3.338239479
C	4.15579461	2.682410379	5.994996095
C	4.880277529	2.867898206	5.963319715
C	3.873759008	5.843915436	6.108577573
C	4.179583903	6.333355565	7.0116073
C	0.041707265	6.241592417	4.78073274
C	8.187661639	5.547074044	4.460396187
C	1.425026516	4.286878998	0.706508461
C	1.118569418	4.628594465	0.662214696
C	0.151439447	1.529652688	2.481438006
C	7.289507122	1.455634517	2.441018641
C	7.883432918	4.980136542	2.833752156
C	0.46942153	4.675709717	3.430164414
C	2.779867314	7.834763601	0.194238647
C	2.824811291	7.987416824	7.889669019
C	4.275008875	7.547926899	1.885561631
C	3.863077069	7.736583002	1.751971743
C	5.040381251	1.088418324	0.313954759
C	4.938972744	1.106147157	0.695222695
O	3.680556001	6.295998049	4.870429683
O	5.345184006	6.24196327	4.357893879
O	3.564147772	6.567403002	3.8699189
O	3.105811601	1.639410654	5.530051009
O	2.386032328	4.87320436	7.0255663
O	2.412592372	5.831858132	6.458396679
O	8.197717996	6.410318489	6.273442827
O	5.406462657	2.990488954	4.404183565
O	8.158779228	3.03458037	5.447388161
O	6.611659692	5.342968969	5.432170558
O	2.536997535	7.858312935	0.415523064
O	4.661821321	6.700001313	4.400079353
O	3.594773282	5.39573854	7.656719167
O	3.853482581	3.93514564	6.347268939
O	4.344906477	1.456594839	6.156814935
O	0.139415341	6.543381848	5.621126972
O	6.232291296	7.901079047	5.226695994
O	8.180925063	3.907822491	0.40488434
O	1.38512242	1.685128361	2.597874187
O	2.606462432	6.060151198	6.156817442
O	6.212861285	5.009574419	6.684329778
O	6.538055878	0.151339555	2.384736005
O	2.83825556	4.487544747	7.622664149
O	7.921413765	4.864964786	2.177719431
O	7.62724887	4.657727848	3.708630671
O	0.359072126	2.017623932	2.935674375
O	4.962184996	5.551110824	1.496024538
O	4.0828597	1.798083733	7.330214178
O	1.058596622	0.006069161	5.543727538
O	4.736995079	7.246735155	4.46050117
O	7.987604028	6.020649575	3.848573251
O	8.01248134	1.878762733	3.615786031
O	7.875715807	3.366824727	3.040613323
O	8.101460586	0.012219176	6.801257812
O	4.65093396	0.973056146	1.326256696
O	0.697130873	6.366982381	5.135539142
O	4.385544829	5.687875785	1.360094801
O	7.50759328	4.959471933	1.864635758
O	7.734429142	3.850270011	4.889604211
O	3.570171203	3.055834654	2.525550593
O	2.013185738	6.391021082	2.121199436
O	7.759166106	7.092293777	2.638099013
O	6.243966679	6.71016019	1.830247677
O	2.916744119	7.035246272	5.506031612
O	3.531388244	0.936104328	6.57527084
O	4.04182516	6.166455276	8.038839275
O	1.605555163	6.850771422	7.605442019
O	4.329612339	1.763573748	5.303186677
O	6.462506441	4.309521247	4.73944888
O	5.666538487	0.328994678	0.916323333
O	4.276317864	1.018379788	1.30047852
O	5.238208262	3.091965009	1.934024252
O	4.540524897	5.32134146	7.443760262
O	2.646512531	0.35851289	0.681059461
O	4.43010024	3.271263673	0.490904489
O	2.744695914	1.614508648	3.345953423
O	3.761876966	7.516022972	1.448620076
O	6.69581182	0.467193834	4.844525148
O	2.563528882	4.602262522	3.44669999
O	1.831499706	5.356913363	0.889515657
O	6.560380812	4.56370524	2.000541481
O	4.934149663	1.767895845	0.254158149
O	5.717478688	7.753411366	1.527697007
O	1.778037072	2.115801373	0.402569154
O	2.21041342	2.861207685	5.968262199
O	3.508186239	3.815749363	4.04490254
O	0.158304083	2.289727085	4.235020523
O	5.297223792	2.839255127	4.775969326
O	5.395845634	6.074171962	1.662893561
O	2.621036934	5.613686973	5.54001842
O	8.106444166	4.942478431	4.457372812
O	2.613413379	7.566009226	7.958973959
O	7.489396875	5.137122172	5.137300815
O	2.79616861	1.034407504	0.667422347
O	3.152487184	5.965371312	6.364057601
O	1.252301246	7.887129234	2.118129309
O	1.060806198	1.036134167	6.107600907
O	7.995898051	2.47397866	3.501297506
O	6.722307478	3.700906039	7.751026199
O	1.476428075	7.820286662	6.235246402
O	6.361306213	0.349869515	6.117148225
O	6.991838807	3.888050835	6.722124723
O	0.029083125	1.972085631	6.792328767
O	1.939922526	4.577366599	6.972070172
O	4.347251909	6.264778558	7.335622073
O	2.956556241	4.719479434	5.214219025
O	2.311173729	1.860257905	6.768644296
O	7.846031684	4.149753049	3.720962732
O	7.514207511	7.668386395	6.160626824
O	6.045897944	3.765319499	4.862762301
O	3.677976787	1.426479901	2.249208343
O	4.626210128	3.973748305	1.309043796
O	7.976812465	0.976211059	2.659368447
O	8.15289688	0.186842221	4.183021763
O	6.001633319	6.869955664	2.813455918
O	4.922102729	2.156783475	6.34921563
O	5.959323078	3.308011275	0.8707913
O	3.291209711	7.621058158	1.112318767
O	5.752448213	4.416868076	5.834025338
O	1.324761934	3.172401638	3.96008961
O	1.348386002	5.954683808	5.91171757
O	8.030861537	3.990263997	5.849648472
O	0.382028368	2.884618273	2.667045751
O	1.456547066	7.958110118	1.285397792
O	6.79249397	2.914746285	6.686562964
O	4.499713278	0.400621152	0.417953533
O	0.847116759	1.632267639	3.575361863
O	2.993553317	4.547961993	1.817700107
O	6.002940734	1.642442864	7.740582485
O	5.886733701	6.024974179	2.233901434
O	6.409642469	6.894743879	3.192921175
O	3.574246702	8.169279792	2.932866079
O	4.345608767	2.167484145	4.574329964
O	7.135788538	4.389939769	2.551097092
O	2.676806153	1.843845089	7.343299745
O	7.45309787	6.577955946	3.259186573
O	6.901423823	2.74361424	5.807650919
O	6.764506523	4.65660828	3.413742013
O	2.101095092	5.625335307	5.963151146
O	1.108873257	7.110983755	4.098019907
O	4.337348074	1.124675054	1.608959235
O	1.749447199	2.942637293	7.803819525
O	0.715559811	5.591825097	7.444832654
O	3.105505591	1.106793434	1.707866
O	0.744389936	0.815068472	0.497473692
O	6.387816848	2.81267409	7.733480268
O	2.183732332	4.155107612	3.774705643
O	2.033080158	5.277013166	7.096028884
O	5.9367563	1.739892208	5.825322338
O	4.235403393	3.596600338	0.212514207
O	2.818817932	1.016650822	4.053838721
O	5.912968617	0.299829641	1.141560508
O	3.137713643	6.938174793	8.107968388
O	3.473204354	1.133825525	1.277920699
O	7.700707274	0.701737925	6.515887477
O	2.234470034	6.819894639	7.276905845
O	2.049199887	7.527169854	1.225263315
O	7.467543639	6.363683875	6.469592935
O	7.009177935	4.81832727	2.81157687
O	7.726936536	2.622237846	5.624184558
O	1.877534646	2.654491888	4.515572775
O	7.464680293	3.202338508	2.757559434
O	1.823796357	2.949086623	0.657742099
O	0.255736933	0.930448259	3.594898221
O	4.512052931	4.114367929	5.778370396
O	0.759873603	0.088758844	2.313581584
O	4.908550047	4.558098302	4.837351062
O	0.175883209	6.567870978	4.305763101
O	0.992580937	8.045843838	1.117348743
O	3.5002052	4.011610735	7.981844981
O	5.626128884	6.479147562	7.428152076
O	5.672472189	0.944456549	1.274497004
O	4.287728732	3.140313656	7.293448821
O	2.003076973	6.181100884	0.001588398
O	3.922282331	5.799730358	4.922841798
O	6.43282788	4.932873873	1.376456776
O	6.149146191	2.665577517	1.99691855
O	1.317545491	5.116296659	7.95893254
O	3.516999319	8.209187745	3.585804819
O	1.159580397	4.296071453	2.365101323
O	2.799525606	4.999459941	4.583131358
O	0.91131561	6.527214772	1.436721024
O	3.134334302	0.82556074	2.60112261
O	0.252730165	4.051329068	5.065806729
O	5.062732436	1.62594733	6.114118676
O	7.7769541	1.025619326	3.554089094
O	7.259019436	2.379785003	7.316114225
O	4.049861865	5.146468295	1.929585576
O	6.001998923	5.829039441	6.717422875
O	6.954093754	0.691379881	1.671792035
O	5.88329334	5.671157932	3.720886275
O	6.706127646	2.25582115	3.994993509
O	7.081118724	4.969756146	7.169208455
O	4.624126142	6.71841793	0.819431246
O	0.238002779	0.141598297	3.086693336
O	8.14679935	8.156453984	7.52744682
O	2.386944415	3.61416932	2.630491671
O	5.164559004	4.492145998	6.043887201
O	7.873958986	2.516124094	0.339407316
O	6.005446881	5.207298719	2.644918061
O	4.910556218	4.290681145	7.157144115
O	6.736702618	2.556954395	4.574356213
O	4.73950769	3.353907674	0.56091269
O	3.784031802	1.460862629	6.981368001
O	3.031809136	6.93721582	0.516680291
O	7.522966469	0.221424903	5.56009873
O	4.762104815	1.149766749	5.068625173
O	8.038157388	2.183952147	2.797707636
O	6.426328063	3.900040822	2.627373474
O	4.390588242	0.697479384	3.330122132
O	6.753465134	8.116879891	1.696358597
O	5.95399826	6.894850895	4.813237089
O	6.440827803	6.536196647	1.619131501
O	3.757170619	2.131133357	0.391511992
O	0.99409786	5.09503582	7.214773203
O	2.484861738	7.185978781	5.701339207
O	1.093104162	0.515197957	2.494088459
O	0.468119699	4.478424257	3.884704588
O	2.520087067	0.965062421	4.30890044
O	7.664876094	3.279159504	0.936901363
O	0.508334406	3.8311398	5.047742568
O	6.642566025	1.207904409	5.570375319
O	4.843062287	2.428651866	0.196544014
O	6.07629993	7.43363361	3.124911209
O	3.785938493	2.110808297	6.977930944
O	1.135295184	5.186929511	3.970808444
O	0.597001427	6.799365007	2.659859542
O	4.734786582	5.592832822	0.172312558
O	4.994305357	6.385223309	0.627959885
O	4.556640146	6.781525318	1.46985721
O	3.819950879	0.389084013	2.68753926
O	5.400785818	4.783844298	1.837325868
O	7.063346159	6.35160005	7.481138494
O	6.444867794	2.665793065	1.447879649
O	4.04091361	2.123937849	3.757539667
O	2.217868818	5.523608074	4.131227392
O	2.511425305	4.593512822	1.573466451
O	3.521454911	7.242478982	3.478737499
O	0.456279189	1.82833728	7.694584084
O	4.532442101	1.724787485	3.829584156
O	2.850915173	0.685268064	6.143281733
O	7.728225971	6.079255647	7.509946213
O	3.006232607	1.456331374	4.527670613
O	2.181502637	5.833805702	0.154257268
O	8.110952793	5.844092786	7.456043764
O	7.293783959	5.682574856	7.395571814
O	1.128696743	4.82188168	5.845773865
O	3.795709073	5.29082568	4.964397582
O	4.586994154	5.367415497	8.074113089
O	2.222131711	0.027640764	7.505998709
O	0.753193708	1.024476187	5.74364262
O	3.117510739	4.592423589	1.240079912
O	4.376892794	0.202414841	7.712839913
O	2.356917323	5.916678748	4.976644505
O	0.790972712	4.550949337	7.426607721
O	4.651652862	2.031955133	3.111492684
O	1.369324167	3.369225708	5.707295076
O	4.885341737	6.758574902	8.144170194
O	6.500059687	6.462756594	6.056002132
O	7.690578535	5.587464723	5.145527161
O	4.82958723	2.70829441	7.153889974
O	6.595966772	7.816811469	5.023129601
O	2.540131745	4.750918597	5.478864019
O	1.792057777	4.71091834	7.70600734
O	8.0522346	7.511963171	5.61611385
O	1.763102824	2.390547163	1.241257518
O	0.725971624	8.205333281	6.660955829
O	0.556411379	0.589481128	4.17962951
O	2.1035934	6.43732459	7.546896732
O	2.062984149	1.977483967	1.276797416
O	8.070903726	4.405560701	0.272926699
O	3.652374325	3.770339143	3.692558183
O	1.74845603	5.620586773	2.733598756
O	3.037412928	4.515014283	4.702998122
O	6.053011059	3.190983843	6.960255218
O	6.171844033	1.450644428	4.451928236
O	3.681145674	4.35527673	5.563287719
O	0.582732934	7.61580403	5.016319885
O	5.928358818	6.154852246	5.723691024
O	2.044421871	0.536129709	3.205316445
O	5.647527078	0.145107295	1.350161477
O	3.946257339	2.866415677	2.120896321
O	0.156719074	0.984671797	2.741629346
O	3.892206015	2.010553683	6.387268076
O	7.651922351	3.14478239	0.053377251
O	0.550800251	7.430462512	5.412365026
O	6.848555645	7.399236626	5.386484142
O	2.948523368	0.440139869	7.288082516
O	1.442365051	2.285541553	5.872630487
O	1.079321571	6.336855295	7.465980131
O	2.002200332	7.891715743	4.089295232
O	7.764125562	8.081924931	5.024167816
O	5.62318716	4.286183936	7.72367092
O	5.470485103	2.076896439	4.409441278
O	8.123295701	5.551047001	2.828762701
O	2.276556579	0.894064696	3.004728859
O	7.437578047	7.826487013	7.613888947
O	6.202389712	8.134298823	4.330538561
O	3.357286161	5.120673603	4.313842147
O	2.623300123	7.024583005	0.725225561
O	1.254820143	7.251339548	6.032406164
O	6.892815508	2.21400234	0.416198674
O	6.232622027	4.702447742	0.192905182
O	0.537816037	3.346896343	5.033149309
O	1.010465385	3.75664356	1.632181399
O	7.465976515	7.952543725	4.199748732
O	5.59809458	0.558310372	4.48358329
O	5.400273396	4.913005423	5.861531061
O	7.089863695	0.887333548	5.630277214
O	0.309769179	1.073449975	8.093082778
O	1.073013431	3.14183451	2.065315818
O	7.778200842	1.264897083	8.20674906
O	6.87136716	3.195859846	4.049680802
O	3.64328511	1.881290608	0.93594314
O	6.612514579	7.240650932	4.381778553
O	6.979691048	5.860596364	5.745553032
O	8.09932728	3.44476225	5.96491552
O	4.761253279	5.473689958	6.68161256
O	6.141726	1.092859419	4.892261366
O	3.00900086	3.658653017	6.430565548
O	5.629186801	2.766299381	0.74958733
O	1.718681413	6.285552395	5.899255034
O	4.415200097	7.398756317	6.517191958
O	6.369353006	2.835538153	4.33515053
O	3.077745929	0.633575796	5.155121194
O	4.065563228	2.397089584	7.745130766
O	7.228515716	5.328744833	5.86515273
O	0.362142265	5.852201941	6.525948068
O	2.038932802	3.546976444	3.117403757
O	3.719305547	0.9575769	3.885823974
O	5.066915739	7.669719804	7.080966125
O	1.603472424	3.29911964	6.213229172
O	2.984179042	4.623389185	6.421768814
O	2.955824931	2.431776937	0.42711948
O	7.875574812	2.9421125	7.592156147
O	0.461161415	6.143431165	3.035371416
O	5.03176616	1.52264706	6.57945142
O	5.430333387	4.493680883	6.281340547
O	5.008194189	7.286996066	2.385694407
O	1.722318364	5.104598272	3.078980742
O	0.630656341	4.773791202	0.360676069
O	0.94915243	7.896250218	5.048337502
O	2.775985576	0.420998008	0.045851997
O	0.495317609	8.192324807	7.337249374
O	8.029302697	5.369005594	0.322165979
O	7.053007668	0.250155262	6.052579098
O	0.687568688	0.098765915	2.890205447
O	4.7092536	0.290348669	7.158582228
O	0.217965271	2.304388234	4.965216915
O	7.348039707	2.332331474	2.165669806
O	7.439634441	5.059313485	0.295278407
O	4.719326071	6.958996797	2.95265119
O	0.646407676	3.752464896	3.569697767
O	0.089862708	1.008937139	3.089082744
O	0.666289379	5.149488768	3.680605584
O	5.886150433	7.709440762	2.380878098
O	0.471259882	0.496373848	1.255243057
O	7.290841037	3.240066361	0.728235468
O	1.629985058	5.918432154	2.956530832
O	7.407046618	6.04629154	2.15132592
O	4.136144458	3.383511778	4.732040233
O	3.042490589	1.165534681	7.070392133
O	2.026972442	1.58386909	7.518402952
O	4.496190597	6.738016925	1.126384234
O	3.447045175	3.441963694	5.867668273
O	5.469898051	5.002109443	1.310070742
O	7.897499935	6.153372282	6.093161814
O	2.014848911	7.729472902	1.674029763
O	3.209579731	8.030205091	5.835642341
O	5.238926824	7.62767941	5.55215542
O	7.207518876	0.978737116	1.468091988
O	6.403355119	3.611265261	2.113174207
O	0.488491105	0.816281149	5.394941464
O	2.634403076	6.118720771	7.715013698
O	5.295364506	5.530959731	7.698561536
O	6.667996685	3.318092795	1.722517279
O	1.413422584	7.469354272	5.276896729
O	2.940994172	7.830636937	7.077002466
O	2.514760488	2.519891268	6.465505035
O	4.168799301	7.860624084	5.088392251
O	5.814419011	2.742783235	5.653579511
O	5.132614589	0.819478269	6.900544771
O	1.494448943	1.381815338	5.99881042
O	0.644490903	3.97912148	6.765408591
O	4.535540892	2.086460965	2.576513994
O	6.895179945	0.542477993	0.041693866
O	2.156461691	5.132516958	3.873829528
O	7.84485079	4.931007004	4.720469884
O	6.196506048	7.008986137	3.418921377
O	7.794950212	2.653124153	5.178363374
O	0.102330697	4.284411861	0.069487233
O	0.992611954	5.886151489	2.772516119
O	0.472673861	3.928977458	1.745811414
O	6.158626569	6.032424818	5.234885608
O	0.855234063	5.994618652	6.61697487
O	1.750813775	5.59588238	3.49282206
O	6.186853164	0.896900222	2.39706315
O	0.392285201	5.694469292	5.810614271
O	5.176930248	6.174580691	5.417722152
O	3.324063108	3.846733825	6.766455365
O	4.286764267	1.931895845	3.574806296
O	6.853879183	5.120957967	3.89626946
O	6.140184577	7.309049538	6.038017911
O	0.932065256	4.669017244	5.319661413
O	4.543519601	4.519543438	5.200716698
O	2.666497437	3.789290925	6.176007668
O	0.811897757	6.758367832	5.601231076
O	6.937227053	5.894078245	4.880119502
O	7.304117679	1.30876593	3.105621237
O	5.665041351	8.042029529	5.65072584
O	6.155144074	2.846630311	6.208718801
O	1.030117983	0.366040516	4.931774195
O	6.849767913	7.97021977	3.661769725
O	0.68185352	1.054753205	8.088292694
O	7.7197565	0.227886327	6.139454944
O	1.230607148	5.331855436	6.006183811
O	0.338543964	5.099435692	4.983218941
O	7.301513687	4.873811641	3.815996207
O	1.881523971	4.820559448	8.161489262
O	6.19772702	6.773258512	1.154376547
O	6.980815176	3.901695929	7.530670326
O	3.988758826	6.679455818	0.393375928
O	3.616919278	0.347599885	4.07039828
O	3.326110113	7.092116845	5.651938022
O	1.499534567	4.862336665	3.334682107
O	0.862556043	2.291207921	7.36361246
O	3.089010748	0.291845398	3.22280685
O	7.101108182	3.519292328	4.704582978
O	6.548940865	5.230502054	0.931094607
O	1.292228897	7.816490094	1.682555517
O	6.82231616	4.840654619	5.089261458
O	6.289166527	0.308661245	0.01609633
O	1.873094596	5.959593595	3.965293242
O	8.126171772	7.25182824	2.844170856
O	6.60182281	1.241689018	3.904451603
O	1.215970117	1.025305116	3.953504962
O	2.640557262	3.639900869	0.086784326
O	7.07530364	0.85863679	0.176789135
O	0.057966958	7.997334361	2.225211804
O	2.253950723	3.279363577	4.013812869
O	3.701916273	6.255453969	0.957015016
O	2.658501182	6.444658569	5.955884336
O	4.100805139	4.374233852	5.305402136
O	5.063644039	7.56000167	1.518573969
O	2.65004041	2.036930346	0.809899333
O	4.75577162	0.905259014	5.49416242
O	4.086982921	5.978224583	5.823002362
O	5.847510592	6.13280878	7.9659151
O	7.497309344	7.166820093	7.963436034
O	5.626822077	1.950205829	0.663488686
O	6.82175521	4.333682875	8.04418543
O	0.732993774	2.648969891	2.214356597
O	4.429452529	6.318213787	7.703996663
O	7.550856129	1.002804252	6.935708344
O	4.120838161	2.619109469	0.924832837
O	1.544738689	0.642976331	3.754002274
O	5.62530356	5.416513572	4.657601924
O	3.04106071	5.590233514	0.413587328
O	7.814560559	7.344192692	3.309589064
O	4.322228452	1.155527081	3.712856578
O	5.014643291	3.38020199	6.947217848
O	0.693090004	7.558227249	2.333813067
O	5.425517268	6.961547643	1.784446467
O	2.513955844	1.157634164	5.988554756
O	2.108576049	5.855283508	1.898299888
O	4.363702049	1.338448329	4.487512819
O	4.01841681	5.069112791	3.689413899
O	4.921436001	1.61327978	2.771759288
O	3.938790666	3.990085919	4.112401448
O	5.591613946	1.195829529	1.919017114
O	1.915925121	6.644093902	0.737617297
O	7.801894782	3.277574098	3.77372201
O	2.524977101	3.953737568	7.913513813
O	0.883675309	1.918493656	7.014139002
O	3.22598871	1.41362402	3.660959016
O	2.206584516	2.382599565	7.325278123
O	1.863759309	0.816782812	1.013142202
O	8.038515689	5.810159364	2.026230854
O	6.069139752	2.777891267	2.916844118
O	7.030256425	1.753955689	7.156833867
O	4.840868362	0.630682079	3.804681737
O	5.795896006	5.25798775	0.197475131
O	1.36589945	3.144572193	7.974582447
O	0.83476021	3.602374761	2.885223998
O	7.319665575	2.682204763	1.744606378
O	3.374061	1.608035839	4.250456495
O	2.107251322	0.718151656	2.108540243
O	6.090735534	4.379862129	0.548403807
O	7.135365962	7.340845743	5.111207835
O	1.127922842	5.338055485	1.432913522
O	2.215236655	5.040715622	0.088463691
O	1.676604606	8.186711123	7.72352565
O	4.266484436	6.268312229	1.927032636
O	5.042569523	2.943275749	8.067975274
O	8.103112506	0.355177875	3.816792397
O	1.167219866	7.55568017	6.548690093
O	4.002687658	2.495053106	7.403081228
O	0.722687389	5.201056779	7.469363753
O	7.427629143	5.0267627	1.518372723
O	0.018669957	4.212243849	5.617510025
O	4.435031702	4.355150368	0.494063113
O	1.466697888	5.104801106	2.479352442
O	5.717048064	0.292594297	6.398130001
O	4.665761308	0.618913194	6.252049823
O	4.812611442	7.065117679	5.17702858
O	6.668489857	0.824649506	6.971009792
O	3.394631916	8.176071023	2.578863938
O	3.963574555	8.028912868	6.801054813
O	3.762542696	5.699293236	7.510659092
O	3.168654066	0.551519814	4.159456217
O	2.081341528	1.026820087	6.081021695
O	2.748614942	6.066835434	5.591509723
O	3.768915618	4.579019061	4.426696846
O	7.480179156	3.849457884	2.074137734
O	5.32687757	1.372589177	6.831687156
O	4.724495875	3.19414868	7.596727849
O	1.391817945	6.669312271	5.820392061
O	0.933430392	5.815876697	0.996768155
O	1.411160327	3.60935327	2.201952343
O	1.705494171	7.647891859	6.631466635